* NGSPICE file created from cache_controller.ext - technology: sky130A

* Black-box entry subcircuit for sky130_fd_sc_hd__decap_3 abstract view
.subckt sky130_fd_sc_hd__decap_3 VGND VNB VPB VPWR
.ends

* Black-box entry subcircuit for sky130_fd_sc_hd__decap_4 abstract view
.subckt sky130_fd_sc_hd__decap_4 VGND VNB VPB VPWR
.ends

* Black-box entry subcircuit for sky130_fd_sc_hd__o21a_1 abstract view
.subckt sky130_fd_sc_hd__o21a_1 A1 A2 B1 VGND VNB VPB VPWR X
.ends

* Black-box entry subcircuit for sky130_fd_sc_hd__a221o_1 abstract view
.subckt sky130_fd_sc_hd__a221o_1 A1 A2 B1 B2 C1 VGND VNB VPB VPWR X
.ends

* Black-box entry subcircuit for sky130_fd_sc_hd__mux2_1 abstract view
.subckt sky130_fd_sc_hd__mux2_1 A0 A1 S VGND VNB VPB VPWR X
.ends

* Black-box entry subcircuit for sky130_fd_sc_hd__xor2_2 abstract view
.subckt sky130_fd_sc_hd__xor2_2 A B VGND VNB VPB VPWR X
.ends

* Black-box entry subcircuit for sky130_fd_sc_hd__a22o_1 abstract view
.subckt sky130_fd_sc_hd__a22o_1 A1 A2 B1 B2 VGND VNB VPB VPWR X
.ends

* Black-box entry subcircuit for sky130_fd_sc_hd__or4_1 abstract view
.subckt sky130_fd_sc_hd__or4_1 A B C D VGND VNB VPB VPWR X
.ends

* Black-box entry subcircuit for sky130_fd_sc_hd__or4_4 abstract view
.subckt sky130_fd_sc_hd__or4_4 A B C D VGND VNB VPB VPWR X
.ends

* Black-box entry subcircuit for sky130_fd_sc_hd__fill_2 abstract view
.subckt sky130_fd_sc_hd__fill_2 VGND VNB VPB VPWR
.ends

* Black-box entry subcircuit for sky130_fd_sc_hd__decap_6 abstract view
.subckt sky130_fd_sc_hd__decap_6 VGND VNB VPB VPWR
.ends

* Black-box entry subcircuit for sky130_ef_sc_hd__decap_12 abstract view
.subckt sky130_ef_sc_hd__decap_12 VPWR VGND VPB VNB
.ends

* Black-box entry subcircuit for sky130_fd_sc_hd__tapvpwrvgnd_1 abstract view
.subckt sky130_fd_sc_hd__tapvpwrvgnd_1 VGND VPWR
.ends

* Black-box entry subcircuit for sky130_fd_sc_hd__fill_1 abstract view
.subckt sky130_fd_sc_hd__fill_1 VGND VNB VPB VPWR
.ends

* Black-box entry subcircuit for sky130_fd_sc_hd__or2_1 abstract view
.subckt sky130_fd_sc_hd__or2_1 A B VGND VNB VPB VPWR X
.ends

* Black-box entry subcircuit for sky130_fd_sc_hd__dlygate4sd3_1 abstract view
.subckt sky130_fd_sc_hd__dlygate4sd3_1 A VGND VNB VPB VPWR X
.ends

* Black-box entry subcircuit for sky130_fd_sc_hd__buf_1 abstract view
.subckt sky130_fd_sc_hd__buf_1 A VGND VNB VPB VPWR X
.ends

* Black-box entry subcircuit for sky130_fd_sc_hd__buf_6 abstract view
.subckt sky130_fd_sc_hd__buf_6 A VGND VNB VPB VPWR X
.ends

* Black-box entry subcircuit for sky130_fd_sc_hd__buf_12 abstract view
.subckt sky130_fd_sc_hd__buf_12 A VGND VNB VPB VPWR X
.ends

* Black-box entry subcircuit for sky130_fd_sc_hd__clkbuf_2 abstract view
.subckt sky130_fd_sc_hd__clkbuf_2 A VGND VNB VPB VPWR X
.ends

* Black-box entry subcircuit for sky130_fd_sc_hd__dfxtp_1 abstract view
.subckt sky130_fd_sc_hd__dfxtp_1 CLK D VGND VNB VPB VPWR Q
.ends

* Black-box entry subcircuit for sky130_fd_sc_hd__decap_8 abstract view
.subckt sky130_fd_sc_hd__decap_8 VGND VNB VPB VPWR
.ends

* Black-box entry subcircuit for sky130_fd_sc_hd__o31a_1 abstract view
.subckt sky130_fd_sc_hd__o31a_1 A1 A2 A3 B1 VGND VNB VPB VPWR X
.ends

* Black-box entry subcircuit for sky130_fd_sc_hd__or3_1 abstract view
.subckt sky130_fd_sc_hd__or3_1 A B C VGND VNB VPB VPWR X
.ends

* Black-box entry subcircuit for sky130_fd_sc_hd__a21o_1 abstract view
.subckt sky130_fd_sc_hd__a21o_1 A1 A2 B1 VGND VNB VPB VPWR X
.ends

* Black-box entry subcircuit for sky130_fd_sc_hd__and2b_1 abstract view
.subckt sky130_fd_sc_hd__and2b_1 A_N B VGND VNB VPB VPWR X
.ends

* Black-box entry subcircuit for sky130_fd_sc_hd__nand2_2 abstract view
.subckt sky130_fd_sc_hd__nand2_2 A B VGND VNB VPB VPWR Y
.ends

* Black-box entry subcircuit for sky130_fd_sc_hd__and2_1 abstract view
.subckt sky130_fd_sc_hd__and2_1 A B VGND VNB VPB VPWR X
.ends

* Black-box entry subcircuit for sky130_fd_sc_hd__clkbuf_4 abstract view
.subckt sky130_fd_sc_hd__clkbuf_4 A VGND VNB VPB VPWR X
.ends

* Black-box entry subcircuit for sky130_fd_sc_hd__buf_4 abstract view
.subckt sky130_fd_sc_hd__buf_4 A VGND VNB VPB VPWR X
.ends

* Black-box entry subcircuit for sky130_fd_sc_hd__or2_2 abstract view
.subckt sky130_fd_sc_hd__or2_2 A B VGND VNB VPB VPWR X
.ends

* Black-box entry subcircuit for sky130_fd_sc_hd__clkbuf_8 abstract view
.subckt sky130_fd_sc_hd__clkbuf_8 A VGND VNB VPB VPWR X
.ends

* Black-box entry subcircuit for sky130_fd_sc_hd__buf_2 abstract view
.subckt sky130_fd_sc_hd__buf_2 A VGND VNB VPB VPWR X
.ends

* Black-box entry subcircuit for sky130_fd_sc_hd__bufinv_16 abstract view
.subckt sky130_fd_sc_hd__bufinv_16 A VGND VNB VPB VPWR Y
.ends

* Black-box entry subcircuit for sky130_fd_sc_hd__and3_1 abstract view
.subckt sky130_fd_sc_hd__and3_1 A B C VGND VNB VPB VPWR X
.ends

* Black-box entry subcircuit for sky130_fd_sc_hd__diode_2 abstract view
.subckt sky130_fd_sc_hd__diode_2 DIODE VGND VNB VPB VPWR
.ends

* Black-box entry subcircuit for sky130_fd_sc_hd__dlymetal6s2s_1 abstract view
.subckt sky130_fd_sc_hd__dlymetal6s2s_1 A VGND VNB VPB VPWR X
.ends

* Black-box entry subcircuit for sky130_fd_sc_hd__clkbuf_1 abstract view
.subckt sky130_fd_sc_hd__clkbuf_1 A VGND VNB VPB VPWR X
.ends

* Black-box entry subcircuit for sky130_fd_sc_hd__clkbuf_16 abstract view
.subckt sky130_fd_sc_hd__clkbuf_16 A VGND VNB VPB VPWR X
.ends

* Black-box entry subcircuit for sky130_fd_sc_hd__buf_8 abstract view
.subckt sky130_fd_sc_hd__buf_8 A VGND VNB VPB VPWR X
.ends

* Black-box entry subcircuit for sky130_fd_sc_hd__nor4_4 abstract view
.subckt sky130_fd_sc_hd__nor4_4 A B C D VGND VNB VPB VPWR Y
.ends

* Black-box entry subcircuit for sky130_fd_sc_hd__nor2_1 abstract view
.subckt sky130_fd_sc_hd__nor2_1 A B VGND VNB VPB VPWR Y
.ends

* Black-box entry subcircuit for sky130_fd_sc_hd__o31ai_2 abstract view
.subckt sky130_fd_sc_hd__o31ai_2 A1 A2 A3 B1 VGND VNB VPB VPWR Y
.ends

* Black-box entry subcircuit for sky130_fd_sc_hd__nor2_2 abstract view
.subckt sky130_fd_sc_hd__nor2_2 A B VGND VNB VPB VPWR Y
.ends

* Black-box entry subcircuit for sky130_fd_sc_hd__a221o_2 abstract view
.subckt sky130_fd_sc_hd__a221o_2 A1 A2 B1 B2 C1 VGND VNB VPB VPWR X
.ends

* Black-box entry subcircuit for sky130_fd_sc_hd__clkinvlp_4 abstract view
.subckt sky130_fd_sc_hd__clkinvlp_4 A VGND VNB VPB VPWR Y
.ends

* Black-box entry subcircuit for sky130_fd_sc_hd__inv_8 abstract view
.subckt sky130_fd_sc_hd__inv_8 A VGND VNB VPB VPWR Y
.ends

* Black-box entry subcircuit for sky130_fd_sc_hd__clkinv_2 abstract view
.subckt sky130_fd_sc_hd__clkinv_2 A VGND VNB VPB VPWR Y
.ends

* Black-box entry subcircuit for sky130_fd_sc_hd__nand2_1 abstract view
.subckt sky130_fd_sc_hd__nand2_1 A B VGND VNB VPB VPWR Y
.ends

* Black-box entry subcircuit for sky130_fd_sc_hd__a31o_1 abstract view
.subckt sky130_fd_sc_hd__a31o_1 A1 A2 A3 B1 VGND VNB VPB VPWR X
.ends

* Black-box entry subcircuit for sky130_fd_sc_hd__xor2_1 abstract view
.subckt sky130_fd_sc_hd__xor2_1 A B VGND VNB VPB VPWR X
.ends

* Black-box entry subcircuit for sky130_fd_sc_hd__nand2b_1 abstract view
.subckt sky130_fd_sc_hd__nand2b_1 A_N B VGND VNB VPB VPWR Y
.ends

* Black-box entry subcircuit for sky130_fd_sc_hd__inv_12 abstract view
.subckt sky130_fd_sc_hd__inv_12 A VGND VNB VPB VPWR Y
.ends

* Black-box entry subcircuit for sky130_fd_sc_hd__clkinv_8 abstract view
.subckt sky130_fd_sc_hd__clkinv_8 A VGND VNB VPB VPWR Y
.ends

* Black-box entry subcircuit for sky130_fd_sc_hd__clkinv_4 abstract view
.subckt sky130_fd_sc_hd__clkinv_4 A VGND VNB VPB VPWR Y
.ends

* Black-box entry subcircuit for sky130_fd_sc_hd__or2_4 abstract view
.subckt sky130_fd_sc_hd__or2_4 A B VGND VNB VPB VPWR X
.ends

* Black-box entry subcircuit for sky130_fd_sc_hd__nand2b_4 abstract view
.subckt sky130_fd_sc_hd__nand2b_4 A_N B VGND VNB VPB VPWR Y
.ends

* Black-box entry subcircuit for sky130_fd_sc_hd__or4b_1 abstract view
.subckt sky130_fd_sc_hd__or4b_1 A B C D_N VGND VNB VPB VPWR X
.ends

* Black-box entry subcircuit for sky130_fd_sc_hd__inv_6 abstract view
.subckt sky130_fd_sc_hd__inv_6 A VGND VNB VPB VPWR Y
.ends

* Black-box entry subcircuit for sky130_fd_sc_hd__nor4_1 abstract view
.subckt sky130_fd_sc_hd__nor4_1 A B C D VGND VNB VPB VPWR Y
.ends

* Black-box entry subcircuit for sky130_fd_sc_hd__and2_4 abstract view
.subckt sky130_fd_sc_hd__and2_4 A B VGND VNB VPB VPWR X
.ends

* Black-box entry subcircuit for sky130_fd_sc_hd__and2_2 abstract view
.subckt sky130_fd_sc_hd__and2_2 A B VGND VNB VPB VPWR X
.ends

* Black-box entry subcircuit for sky130_fd_sc_hd__a2111o_1 abstract view
.subckt sky130_fd_sc_hd__a2111o_1 A1 A2 B1 C1 D1 VGND VNB VPB VPWR X
.ends

* Black-box entry subcircuit for sky130_fd_sc_hd__nor2_4 abstract view
.subckt sky130_fd_sc_hd__nor2_4 A B VGND VNB VPB VPWR Y
.ends

* Black-box entry subcircuit for sky130_fd_sc_hd__xnor2_1 abstract view
.subckt sky130_fd_sc_hd__xnor2_1 A B VGND VNB VPB VPWR Y
.ends

* Black-box entry subcircuit for sky130_fd_sc_hd__nand2b_2 abstract view
.subckt sky130_fd_sc_hd__nand2b_2 A_N B VGND VNB VPB VPWR Y
.ends

* Black-box entry subcircuit for sky130_fd_sc_hd__dfxtp_2 abstract view
.subckt sky130_fd_sc_hd__dfxtp_2 CLK D VGND VNB VPB VPWR Q
.ends

* Black-box entry subcircuit for sky130_fd_sc_hd__a211o_1 abstract view
.subckt sky130_fd_sc_hd__a211o_1 A1 A2 B1 C1 VGND VNB VPB VPWR X
.ends

* Black-box entry subcircuit for sky130_fd_sc_hd__and3_4 abstract view
.subckt sky130_fd_sc_hd__and3_4 A B C VGND VNB VPB VPWR X
.ends

* Black-box entry subcircuit for sky130_fd_sc_hd__and2b_2 abstract view
.subckt sky130_fd_sc_hd__and2b_2 A_N B VGND VNB VPB VPWR X
.ends

* Black-box entry subcircuit for sky130_fd_sc_hd__inv_2 abstract view
.subckt sky130_fd_sc_hd__inv_2 A VGND VNB VPB VPWR Y
.ends

* Black-box entry subcircuit for sky130_fd_sc_hd__a31oi_2 abstract view
.subckt sky130_fd_sc_hd__a31oi_2 A1 A2 A3 B1 VGND VNB VPB VPWR Y
.ends

* Black-box entry subcircuit for sky130_fd_sc_hd__nor4_2 abstract view
.subckt sky130_fd_sc_hd__nor4_2 A B C D VGND VNB VPB VPWR Y
.ends

* Black-box entry subcircuit for sky130_fd_sc_hd__and2b_4 abstract view
.subckt sky130_fd_sc_hd__and2b_4 A_N B VGND VNB VPB VPWR X
.ends

* Black-box entry subcircuit for sky130_fd_sc_hd__a21boi_1 abstract view
.subckt sky130_fd_sc_hd__a21boi_1 A1 A2 B1_N VGND VNB VPB VPWR Y
.ends

* Black-box entry subcircuit for sky130_fd_sc_hd__o21ai_1 abstract view
.subckt sky130_fd_sc_hd__o21ai_1 A1 A2 B1 VGND VNB VPB VPWR Y
.ends

* Black-box entry subcircuit for sky130_fd_sc_hd__a221o_4 abstract view
.subckt sky130_fd_sc_hd__a221o_4 A1 A2 B1 B2 C1 VGND VNB VPB VPWR X
.ends

* Black-box entry subcircuit for sky130_fd_sc_hd__or4b_4 abstract view
.subckt sky130_fd_sc_hd__or4b_4 A B C D_N VGND VNB VPB VPWR X
.ends

* Black-box entry subcircuit for sky130_fd_sc_hd__and3b_1 abstract view
.subckt sky130_fd_sc_hd__and3b_1 A_N B C VGND VNB VPB VPWR X
.ends

* Black-box entry subcircuit for sky130_fd_sc_hd__or3b_1 abstract view
.subckt sky130_fd_sc_hd__or3b_1 A B C_N VGND VNB VPB VPWR X
.ends

* Black-box entry subcircuit for sky130_fd_sc_hd__and3b_4 abstract view
.subckt sky130_fd_sc_hd__and3b_4 A_N B C VGND VNB VPB VPWR X
.ends

* Black-box entry subcircuit for sky130_fd_sc_hd__nand2_8 abstract view
.subckt sky130_fd_sc_hd__nand2_8 A B VGND VNB VPB VPWR Y
.ends

* Black-box entry subcircuit for sky130_fd_sc_hd__dfrtp_1 abstract view
.subckt sky130_fd_sc_hd__dfrtp_1 CLK D RESET_B VGND VNB VPB VPWR Q
.ends

* Black-box entry subcircuit for sky130_fd_sc_hd__dfrtp_4 abstract view
.subckt sky130_fd_sc_hd__dfrtp_4 CLK D RESET_B VGND VNB VPB VPWR Q
.ends

* Black-box entry subcircuit for sky130_fd_sc_hd__inv_16 abstract view
.subckt sky130_fd_sc_hd__inv_16 A VGND VNB VPB VPWR Y
.ends

* Black-box entry subcircuit for sky130_fd_sc_hd__dfstp_1 abstract view
.subckt sky130_fd_sc_hd__dfstp_1 CLK D SET_B VGND VNB VPB VPWR Q
.ends

* Black-box entry subcircuit for sky130_fd_sc_hd__dlygate4sd1_1 abstract view
.subckt sky130_fd_sc_hd__dlygate4sd1_1 A VGND VNB VPB VPWR X
.ends

* Black-box entry subcircuit for sky130_fd_sc_hd__o41a_1 abstract view
.subckt sky130_fd_sc_hd__o41a_1 A1 A2 A3 A4 B1 VGND VNB VPB VPWR X
.ends

.subckt cache_controller VGND VPWR clk cpu_addr[0] cpu_addr[10] cpu_addr[11] cpu_addr[12]
+ cpu_addr[13] cpu_addr[14] cpu_addr[15] cpu_addr[16] cpu_addr[17] cpu_addr[18] cpu_addr[19]
+ cpu_addr[1] cpu_addr[20] cpu_addr[21] cpu_addr[22] cpu_addr[23] cpu_addr[24] cpu_addr[25]
+ cpu_addr[26] cpu_addr[27] cpu_addr[28] cpu_addr[29] cpu_addr[2] cpu_addr[30] cpu_addr[31]
+ cpu_addr[3] cpu_addr[4] cpu_addr[5] cpu_addr[6] cpu_addr[7] cpu_addr[8] cpu_addr[9]
+ cpu_rdata[0] cpu_rdata[10] cpu_rdata[11] cpu_rdata[12] cpu_rdata[13] cpu_rdata[14]
+ cpu_rdata[15] cpu_rdata[16] cpu_rdata[17] cpu_rdata[18] cpu_rdata[19] cpu_rdata[1]
+ cpu_rdata[20] cpu_rdata[21] cpu_rdata[22] cpu_rdata[23] cpu_rdata[24] cpu_rdata[25]
+ cpu_rdata[26] cpu_rdata[27] cpu_rdata[28] cpu_rdata[29] cpu_rdata[2] cpu_rdata[30]
+ cpu_rdata[31] cpu_rdata[32] cpu_rdata[33] cpu_rdata[34] cpu_rdata[35] cpu_rdata[36]
+ cpu_rdata[37] cpu_rdata[38] cpu_rdata[39] cpu_rdata[3] cpu_rdata[40] cpu_rdata[41]
+ cpu_rdata[42] cpu_rdata[43] cpu_rdata[44] cpu_rdata[45] cpu_rdata[46] cpu_rdata[47]
+ cpu_rdata[48] cpu_rdata[49] cpu_rdata[4] cpu_rdata[50] cpu_rdata[51] cpu_rdata[52]
+ cpu_rdata[53] cpu_rdata[54] cpu_rdata[55] cpu_rdata[56] cpu_rdata[57] cpu_rdata[58]
+ cpu_rdata[59] cpu_rdata[5] cpu_rdata[60] cpu_rdata[61] cpu_rdata[62] cpu_rdata[63]
+ cpu_rdata[6] cpu_rdata[7] cpu_rdata[8] cpu_rdata[9] cpu_read cpu_ready cpu_wdata[0]
+ cpu_wdata[10] cpu_wdata[11] cpu_wdata[12] cpu_wdata[13] cpu_wdata[14] cpu_wdata[15]
+ cpu_wdata[16] cpu_wdata[17] cpu_wdata[18] cpu_wdata[19] cpu_wdata[1] cpu_wdata[20]
+ cpu_wdata[21] cpu_wdata[22] cpu_wdata[23] cpu_wdata[24] cpu_wdata[25] cpu_wdata[26]
+ cpu_wdata[27] cpu_wdata[28] cpu_wdata[29] cpu_wdata[2] cpu_wdata[30] cpu_wdata[31]
+ cpu_wdata[32] cpu_wdata[33] cpu_wdata[34] cpu_wdata[35] cpu_wdata[36] cpu_wdata[37]
+ cpu_wdata[38] cpu_wdata[39] cpu_wdata[3] cpu_wdata[40] cpu_wdata[41] cpu_wdata[42]
+ cpu_wdata[43] cpu_wdata[44] cpu_wdata[45] cpu_wdata[46] cpu_wdata[47] cpu_wdata[48]
+ cpu_wdata[49] cpu_wdata[4] cpu_wdata[50] cpu_wdata[51] cpu_wdata[52] cpu_wdata[53]
+ cpu_wdata[54] cpu_wdata[55] cpu_wdata[56] cpu_wdata[57] cpu_wdata[58] cpu_wdata[59]
+ cpu_wdata[5] cpu_wdata[60] cpu_wdata[61] cpu_wdata[62] cpu_wdata[63] cpu_wdata[6]
+ cpu_wdata[7] cpu_wdata[8] cpu_wdata[9] cpu_write mem_addr[0] mem_addr[10] mem_addr[11]
+ mem_addr[12] mem_addr[13] mem_addr[14] mem_addr[15] mem_addr[16] mem_addr[17] mem_addr[18]
+ mem_addr[19] mem_addr[1] mem_addr[20] mem_addr[21] mem_addr[22] mem_addr[23] mem_addr[24]
+ mem_addr[25] mem_addr[26] mem_addr[27] mem_addr[28] mem_addr[29] mem_addr[2] mem_addr[30]
+ mem_addr[31] mem_addr[3] mem_addr[4] mem_addr[5] mem_addr[6] mem_addr[7] mem_addr[8]
+ mem_addr[9] mem_rdata[0] mem_rdata[10] mem_rdata[11] mem_rdata[12] mem_rdata[13]
+ mem_rdata[14] mem_rdata[15] mem_rdata[16] mem_rdata[17] mem_rdata[18] mem_rdata[19]
+ mem_rdata[1] mem_rdata[20] mem_rdata[21] mem_rdata[22] mem_rdata[23] mem_rdata[24]
+ mem_rdata[25] mem_rdata[26] mem_rdata[27] mem_rdata[28] mem_rdata[29] mem_rdata[2]
+ mem_rdata[30] mem_rdata[31] mem_rdata[32] mem_rdata[33] mem_rdata[34] mem_rdata[35]
+ mem_rdata[36] mem_rdata[37] mem_rdata[38] mem_rdata[39] mem_rdata[3] mem_rdata[40]
+ mem_rdata[41] mem_rdata[42] mem_rdata[43] mem_rdata[44] mem_rdata[45] mem_rdata[46]
+ mem_rdata[47] mem_rdata[48] mem_rdata[49] mem_rdata[4] mem_rdata[50] mem_rdata[51]
+ mem_rdata[52] mem_rdata[53] mem_rdata[54] mem_rdata[55] mem_rdata[56] mem_rdata[57]
+ mem_rdata[58] mem_rdata[59] mem_rdata[5] mem_rdata[60] mem_rdata[61] mem_rdata[62]
+ mem_rdata[63] mem_rdata[6] mem_rdata[7] mem_rdata[8] mem_rdata[9] mem_read mem_ready
+ mem_wdata[0] mem_wdata[10] mem_wdata[11] mem_wdata[12] mem_wdata[13] mem_wdata[14]
+ mem_wdata[15] mem_wdata[16] mem_wdata[17] mem_wdata[18] mem_wdata[19] mem_wdata[1]
+ mem_wdata[20] mem_wdata[21] mem_wdata[22] mem_wdata[23] mem_wdata[24] mem_wdata[25]
+ mem_wdata[26] mem_wdata[27] mem_wdata[28] mem_wdata[29] mem_wdata[2] mem_wdata[30]
+ mem_wdata[31] mem_wdata[32] mem_wdata[33] mem_wdata[34] mem_wdata[35] mem_wdata[36]
+ mem_wdata[37] mem_wdata[38] mem_wdata[39] mem_wdata[3] mem_wdata[40] mem_wdata[41]
+ mem_wdata[42] mem_wdata[43] mem_wdata[44] mem_wdata[45] mem_wdata[46] mem_wdata[47]
+ mem_wdata[48] mem_wdata[49] mem_wdata[4] mem_wdata[50] mem_wdata[51] mem_wdata[52]
+ mem_wdata[53] mem_wdata[54] mem_wdata[55] mem_wdata[56] mem_wdata[57] mem_wdata[58]
+ mem_wdata[59] mem_wdata[5] mem_wdata[60] mem_wdata[61] mem_wdata[62] mem_wdata[63]
+ mem_wdata[6] mem_wdata[7] mem_wdata[8] mem_wdata[9] mem_write reset
XFILLER_100_127 VGND VGND VPWR VPWR sky130_fd_sc_hd__decap_3
XFILLER_39_233 VGND VGND VPWR VPWR sky130_fd_sc_hd__decap_4
X_05903_ data_array.rdata0\[24\] net1666 net1147 VGND VGND VPWR VPWR _03396_ sky130_fd_sc_hd__o21a_1
X_06883_ data_array.data0\[0\]\[13\] net1363 net1269 data_array.data0\[3\]\[13\] _04174_
+ VGND VGND VPWR VPWR _04175_ sky130_fd_sc_hd__a221o_1
X_09671_ net704 net3522 net614 VGND VGND VPWR VPWR _01423_ sky130_fd_sc_hd__mux2_1
X_05834_ data_array.rdata0\[1\] net846 net1142 VGND VGND VPWR VPWR _03350_ sky130_fd_sc_hd__o21a_1
X_08622_ net734 net4316 net517 VGND VGND VPWR VPWR _00381_ sky130_fd_sc_hd__mux2_1
X_08553_ net742 net4423 net584 VGND VGND VPWR VPWR _00321_ sky130_fd_sc_hd__mux2_1
X_05765_ net4 fsm.tag_out1\[5\] VGND VGND VPWR VPWR _03282_ sky130_fd_sc_hd__xor2_2
XFILLER_51_910 VGND VGND VPWR VPWR sky130_fd_sc_hd__decap_4
X_07504_ net1622 _04733_ _04737_ net1196 VGND VGND VPWR VPWR _04740_ sky130_fd_sc_hd__a22o_1
XPHY_EDGE_ROW_59_Left_244 VGND VGND VPWR VPWR sky130_fd_sc_hd__decap_3
X_08484_ net824 net813 net855 _05558_ VGND VGND VPWR VPWR _05560_ sky130_fd_sc_hd__or4_1
XFILLER_22_111 VGND VGND VPWR VPWR sky130_fd_sc_hd__decap_4
X_05696_ _03159_ _03212_ _03192_ _03177_ VGND VGND VPWR VPWR _03213_ sky130_fd_sc_hd__or4_4
XFILLER_161_1006 VGND VGND VPWR VPWR sky130_fd_sc_hd__fill_2
XFILLER_52_29 VGND VGND VPWR VPWR sky130_fd_sc_hd__decap_4
X_07435_ data_array.data0\[8\]\[63\] net1357 net1263 data_array.data0\[11\]\[63\]
+ _04676_ VGND VGND VPWR VPWR _04677_ sky130_fd_sc_hd__a221o_1
XFILLER_167_105 VGND VGND VPWR VPWR sky130_fd_sc_hd__decap_6
XFILLER_168_29 VPWR VGND VPWR VGND sky130_ef_sc_hd__decap_12
XTAP_TAPCELL_ROW_21_802 VGND VPWR sky130_fd_sc_hd__tapvpwrvgnd_1
XFILLER_50_475 VGND VGND VPWR VPWR sky130_fd_sc_hd__fill_1
XFILLER_10_317 VGND VGND VPWR VPWR sky130_fd_sc_hd__decap_4
X_07366_ data_array.data0\[1\]\[57\] net1538 net1442 data_array.data0\[2\]\[57\] VGND
+ VGND VPWR VPWR _04614_ sky130_fd_sc_hd__a22o_1
XFILLER_148_363 VGND VGND VPWR VPWR sky130_fd_sc_hd__fill_1
X_09105_ net866 net3123 net413 VGND VGND VPWR VPWR _00859_ sky130_fd_sc_hd__mux2_1
X_06317_ net1229 _03655_ _03659_ net1181 VGND VGND VPWR VPWR _03661_ sky130_fd_sc_hd__a22o_1
XFILLER_149_897 VGND VGND VPWR VPWR sky130_fd_sc_hd__decap_4
X_07297_ _04550_ _04551_ VGND VGND VPWR VPWR _00045_ sky130_fd_sc_hd__or2_1
XFILLER_136_525 VGND VGND VPWR VPWR sky130_fd_sc_hd__fill_1
XFILLER_163_322 VGND VGND VPWR VPWR sky130_fd_sc_hd__decap_4
X_09036_ net2538 net881 net421 VGND VGND VPWR VPWR _00791_ sky130_fd_sc_hd__mux2_1
XFILLER_164_867 VGND VGND VPWR VPWR sky130_fd_sc_hd__fill_1
X_06248_ tag_array.tag0\[1\]\[5\] net1607 net1511 tag_array.tag0\[2\]\[5\] VGND VGND
+ VPWR VPWR _03598_ sky130_fd_sc_hd__a22o_1
Xhold340 data_array.data0\[0\]\[41\] VGND VGND VPWR VPWR net1991 sky130_fd_sc_hd__dlygate4sd3_1
XPHY_EDGE_ROW_68_Left_253 VGND VGND VPWR VPWR sky130_fd_sc_hd__decap_3
X_06179_ tag_array.valid1\[0\] net1366 net1272 tag_array.valid1\[3\] _03534_ VGND
+ VGND VPWR VPWR _03535_ sky130_fd_sc_hd__a221o_1
Xhold351 data_array.data1\[4\]\[2\] VGND VGND VPWR VPWR net2002 sky130_fd_sc_hd__dlygate4sd3_1
Xhold362 data_array.data1\[4\]\[9\] VGND VGND VPWR VPWR net2013 sky130_fd_sc_hd__dlygate4sd3_1
XTAP_TAPCELL_ROW_57_1475 VGND VPWR sky130_fd_sc_hd__tapvpwrvgnd_1
XFILLER_81_1007 VGND VGND VPWR VPWR sky130_fd_sc_hd__fill_1
Xhold373 data_array.data0\[4\]\[48\] VGND VGND VPWR VPWR net2024 sky130_fd_sc_hd__dlygate4sd3_1
XTAP_TAPCELL_ROW_57_1486 VGND VPWR sky130_fd_sc_hd__tapvpwrvgnd_1
Xhold384 data_array.data1\[1\]\[11\] VGND VGND VPWR VPWR net2035 sky130_fd_sc_hd__dlygate4sd3_1
Xhold395 data_array.data0\[1\]\[63\] VGND VGND VPWR VPWR net2046 sky130_fd_sc_hd__dlygate4sd3_1
Xfanout820 _05356_ VGND VGND VPWR VPWR net820 sky130_fd_sc_hd__buf_1
XFILLER_89_166 VGND VGND VPWR VPWR sky130_fd_sc_hd__fill_2
XFILLER_104_466 VGND VGND VPWR VPWR sky130_fd_sc_hd__fill_1
XFILLER_89_177 VGND VGND VPWR VPWR sky130_fd_sc_hd__decap_3
Xfanout831 net835 VGND VGND VPWR VPWR net831 sky130_fd_sc_hd__buf_6
Xfanout842 net843 VGND VGND VPWR VPWR net842 sky130_fd_sc_hd__buf_6
X_09938_ net1076 net2883 net371 VGND VGND VPWR VPWR _01687_ sky130_fd_sc_hd__mux2_1
Xfanout853 _03213_ VGND VGND VPWR VPWR net853 sky130_fd_sc_hd__buf_12
Xfanout864 _05542_ VGND VGND VPWR VPWR net864 sky130_fd_sc_hd__clkbuf_2
XTAP_TAPCELL_ROW_142_3101 VGND VPWR sky130_fd_sc_hd__tapvpwrvgnd_1
Xfanout875 _05538_ VGND VGND VPWR VPWR net875 sky130_fd_sc_hd__clkbuf_2
XFILLER_133_32 VGND VGND VPWR VPWR sky130_fd_sc_hd__fill_1
Xfanout886 _05532_ VGND VGND VPWR VPWR net886 sky130_fd_sc_hd__clkbuf_2
Xfanout897 _05526_ VGND VGND VPWR VPWR net897 sky130_fd_sc_hd__buf_1
X_09869_ net993 net4267 net383 VGND VGND VPWR VPWR _01619_ sky130_fd_sc_hd__mux2_1
Xhold1040 data_array.data1\[9\]\[7\] VGND VGND VPWR VPWR net2691 sky130_fd_sc_hd__dlygate4sd3_1
XFILLER_46_715 VPWR VGND VPWR VGND sky130_ef_sc_hd__decap_12
XFILLER_100_661 VGND VGND VPWR VPWR sky130_fd_sc_hd__fill_1
Xhold1051 tag_array.tag0\[3\]\[24\] VGND VGND VPWR VPWR net2702 sky130_fd_sc_hd__dlygate4sd3_1
Xhold1062 tag_array.tag1\[10\]\[11\] VGND VGND VPWR VPWR net2713 sky130_fd_sc_hd__dlygate4sd3_1
X_11900_ clknet_leaf_89_clk _00708_ VGND VGND VPWR VPWR data_array.data0\[5\]\[38\]
+ sky130_fd_sc_hd__dfxtp_1
Xhold1073 tag_array.tag1\[5\]\[16\] VGND VGND VPWR VPWR net2724 sky130_fd_sc_hd__dlygate4sd3_1
X_12880_ clknet_leaf_72_clk _01574_ VGND VGND VPWR VPWR data_array.data0\[12\]\[48\]
+ sky130_fd_sc_hd__dfxtp_1
XFILLER_172_3 VPWR VGND VPWR VGND sky130_ef_sc_hd__decap_12
Xhold1084 data_array.data1\[0\]\[40\] VGND VGND VPWR VPWR net2735 sky130_fd_sc_hd__dlygate4sd3_1
XTAP_TAPCELL_ROW_29_946 VGND VPWR sky130_fd_sc_hd__tapvpwrvgnd_1
XTAP_TAPCELL_ROW_29_957 VGND VPWR sky130_fd_sc_hd__tapvpwrvgnd_1
Xhold1095 tag_array.tag1\[10\]\[24\] VGND VGND VPWR VPWR net2746 sky130_fd_sc_hd__dlygate4sd3_1
XPHY_EDGE_ROW_77_Left_262 VGND VGND VPWR VPWR sky130_fd_sc_hd__decap_3
XFILLER_45_258 VGND VGND VPWR VPWR sky130_fd_sc_hd__fill_2
X_11831_ clknet_leaf_90_clk _00639_ VGND VGND VPWR VPWR data_array.data0\[7\]\[33\]
+ sky130_fd_sc_hd__dfxtp_1
XFILLER_26_41 VGND VGND VPWR VPWR sky130_fd_sc_hd__decap_6
XFILLER_27_984 VPWR VGND VPWR VGND sky130_ef_sc_hd__decap_12
XFILLER_61_729 VGND VGND VPWR VPWR sky130_fd_sc_hd__fill_1
XFILLER_26_85 VGND VGND VPWR VPWR sky130_fd_sc_hd__decap_4
X_11762_ clknet_leaf_31_clk _00570_ VGND VGND VPWR VPWR data_array.data0\[8\]\[28\]
+ sky130_fd_sc_hd__dfxtp_1
XFILLER_14_645 VGND VGND VPWR VPWR sky130_fd_sc_hd__fill_2
X_13501_ clknet_leaf_29_clk _02130_ VGND VGND VPWR VPWR tag_array.dirty1\[0\] sky130_fd_sc_hd__dfxtp_1
X_10713_ net1813 net865 net482 VGND VGND VPWR VPWR _02458_ sky130_fd_sc_hd__mux2_1
X_14481_ clknet_leaf_161_clk _03104_ VGND VGND VPWR VPWR tag_array.dirty0\[15\] sky130_fd_sc_hd__dfxtp_1
X_11693_ clknet_leaf_127_clk _00501_ VGND VGND VPWR VPWR tag_array.tag1\[15\]\[9\]
+ sky130_fd_sc_hd__dfxtp_1
XFILLER_42_998 VGND VGND VPWR VPWR sky130_fd_sc_hd__fill_1
XFILLER_41_486 VGND VGND VPWR VPWR sky130_fd_sc_hd__decap_4
X_13432_ clknet_leaf_209_clk _02062_ VGND VGND VPWR VPWR data_array.data1\[8\]\[52\]
+ sky130_fd_sc_hd__dfxtp_1
X_10644_ net2277 net886 net467 VGND VGND VPWR VPWR _02389_ sky130_fd_sc_hd__mux2_1
X_10575_ net907 net4442 net453 VGND VGND VPWR VPWR _02320_ sky130_fd_sc_hd__mux2_1
X_13363_ clknet_leaf_144_clk _01993_ VGND VGND VPWR VPWR tag_array.tag0\[2\]\[8\]
+ sky130_fd_sc_hd__dfxtp_1
XFILLER_127_536 VPWR VGND VPWR VGND sky130_ef_sc_hd__decap_12
XTAP_TAPCELL_ROW_153_3296 VGND VPWR sky130_fd_sc_hd__tapvpwrvgnd_1
XPHY_EDGE_ROW_86_Left_271 VGND VGND VPWR VPWR sky130_fd_sc_hd__decap_3
X_12314_ clknet_leaf_102_clk _01072_ VGND VGND VPWR VPWR tag_array.tag1\[12\]\[21\]
+ sky130_fd_sc_hd__dfxtp_1
XFILLER_6_866 VGND VGND VPWR VPWR sky130_fd_sc_hd__fill_2
X_13294_ clknet_leaf_47_clk _01924_ VGND VGND VPWR VPWR data_array.data0\[10\]\[3\]
+ sky130_fd_sc_hd__dfxtp_1
XTAP_TAPCELL_ROW_114_2557 VGND VPWR sky130_fd_sc_hd__tapvpwrvgnd_1
XFILLER_177_1057 VGND VGND VPWR VPWR sky130_fd_sc_hd__decap_6
XFILLER_182_697 VGND VGND VPWR VPWR sky130_fd_sc_hd__decap_3
XTAP_TAPCELL_ROW_114_2568 VGND VPWR sky130_fd_sc_hd__tapvpwrvgnd_1
XFILLER_142_528 VGND VGND VPWR VPWR sky130_fd_sc_hd__decap_4
X_12245_ clknet_leaf_31_clk _01003_ VGND VGND VPWR VPWR tag_array.tag1\[14\]\[2\]
+ sky130_fd_sc_hd__dfxtp_1
XTAP_TAPCELL_ROW_131_2882 VGND VPWR sky130_fd_sc_hd__tapvpwrvgnd_1
X_12176_ clknet_leaf_145_clk _00984_ VGND VGND VPWR VPWR tag_array.tag0\[14\]\[8\]
+ sky130_fd_sc_hd__dfxtp_1
XTAP_TAPCELL_ROW_131_2893 VGND VPWR sky130_fd_sc_hd__tapvpwrvgnd_1
XFILLER_174_83 VGND VGND VPWR VPWR sky130_fd_sc_hd__fill_1
XFILLER_96_615 VGND VGND VPWR VPWR sky130_fd_sc_hd__fill_1
XFILLER_110_414 VGND VGND VPWR VPWR sky130_fd_sc_hd__decap_6
XFILLER_150_583 VGND VGND VPWR VPWR sky130_fd_sc_hd__decap_4
X_11127_ net1010 net3129 net541 VGND VGND VPWR VPWR _02870_ sky130_fd_sc_hd__mux2_1
XFILLER_122_274 VGND VGND VPWR VPWR sky130_fd_sc_hd__fill_1
XFILLER_110_458 VGND VGND VPWR VPWR sky130_fd_sc_hd__decap_6
XFILLER_114_1030 VGND VGND VPWR VPWR sky130_fd_sc_hd__decap_6
XFILLER_153_1090 VGND VGND VPWR VPWR sky130_fd_sc_hd__fill_2
X_11058_ net1841 net1028 net335 VGND VGND VPWR VPWR _02801_ sky130_fd_sc_hd__mux2_1
XFILLER_95_158 VGND VGND VPWR VPWR sky130_fd_sc_hd__fill_1
XFILLER_95_169 VGND VGND VPWR VPWR sky130_fd_sc_hd__decap_3
XFILLER_3_1007 VGND VGND VPWR VPWR sky130_fd_sc_hd__fill_1
X_10009_ net1050 net2886 net562 VGND VGND VPWR VPWR _01758_ sky130_fd_sc_hd__mux2_1
XFILLER_37_726 VGND VGND VPWR VPWR sky130_fd_sc_hd__fill_2
XFILLER_77_895 VGND VGND VPWR VPWR sky130_fd_sc_hd__fill_1
XPHY_EDGE_ROW_95_Left_280 VGND VGND VPWR VPWR sky130_fd_sc_hd__decap_3
XFILLER_64_545 VGND VGND VPWR VPWR sky130_fd_sc_hd__fill_1
XFILLER_97_1069 VGND VGND VPWR VPWR sky130_fd_sc_hd__fill_1
XFILLER_64_589 VPWR VGND VPWR VGND sky130_ef_sc_hd__decap_12
XFILLER_51_206 VGND VGND VPWR VPWR sky130_fd_sc_hd__fill_2
XFILLER_33_932 VGND VGND VPWR VPWR sky130_fd_sc_hd__fill_2
XTAP_TAPCELL_ROW_177_3753 VGND VPWR sky130_fd_sc_hd__tapvpwrvgnd_1
XTAP_TAPCELL_ROW_177_3764 VGND VPWR sky130_fd_sc_hd__tapvpwrvgnd_1
XFILLER_32_431 VGND VGND VPWR VPWR sky130_fd_sc_hd__decap_6
XFILLER_44_291 VPWR VGND VPWR VGND sky130_ef_sc_hd__decap_12
XFILLER_178_937 VPWR VGND VPWR VGND sky130_ef_sc_hd__decap_12
XFILLER_177_436 VGND VGND VPWR VPWR sky130_fd_sc_hd__fill_2
XFILLER_33_998 VGND VGND VPWR VPWR sky130_fd_sc_hd__decap_8
X_07220_ _04480_ _04481_ VGND VGND VPWR VPWR _00037_ sky130_fd_sc_hd__or2_1
XTAP_TAPCELL_ROW_15_684 VGND VPWR sky130_fd_sc_hd__tapvpwrvgnd_1
XFILLER_73_1091 VGND VGND VPWR VPWR sky130_fd_sc_hd__fill_1
X_07151_ data_array.data0\[4\]\[37\] net1355 net1261 data_array.data0\[7\]\[37\] _04418_
+ VGND VGND VPWR VPWR _04419_ sky130_fd_sc_hd__a221o_1
XFILLER_157_160 VGND VGND VPWR VPWR sky130_fd_sc_hd__decap_8
XFILLER_9_682 VGND VGND VPWR VPWR sky130_fd_sc_hd__decap_6
X_06102_ data_array.rdata0\[17\] net1134 net1113 data_array.rdata1\[17\] VGND VGND
+ VPWR VPWR net271 sky130_fd_sc_hd__a22o_1
X_07082_ data_array.data0\[9\]\[31\] net1577 net1481 data_array.data0\[10\]\[31\]
+ VGND VGND VPWR VPWR _04356_ sky130_fd_sc_hd__a22o_1
XFILLER_172_141 VGND VGND VPWR VPWR sky130_fd_sc_hd__decap_6
XFILLER_146_889 VGND VGND VPWR VPWR sky130_fd_sc_hd__decap_6
XFILLER_172_163 VGND VGND VPWR VPWR sky130_fd_sc_hd__decap_4
X_06033_ net1162 net1141 net1119 net28 VGND VGND VPWR VPWR net257 sky130_fd_sc_hd__o31a_1
XFILLER_113_241 VGND VGND VPWR VPWR sky130_fd_sc_hd__fill_1
XFILLER_113_263 VGND VGND VPWR VPWR sky130_fd_sc_hd__fill_1
XFILLER_87_637 VPWR VGND VPWR VGND sky130_ef_sc_hd__decap_12
XFILLER_101_414 VGND VGND VPWR VPWR sky130_fd_sc_hd__decap_6
XTAP_TAPCELL_ROW_35_1058 VGND VPWR sky130_fd_sc_hd__tapvpwrvgnd_1
XTAP_TAPCELL_ROW_35_1069 VGND VPWR sky130_fd_sc_hd__tapvpwrvgnd_1
XFILLER_86_125 VGND VGND VPWR VPWR sky130_fd_sc_hd__fill_2
X_07984_ data_array.data1\[9\]\[49\] net1572 net1476 data_array.data1\[10\]\[49\]
+ VGND VGND VPWR VPWR _05176_ sky130_fd_sc_hd__a22o_1
XFILLER_86_136 VGND VGND VPWR VPWR sky130_fd_sc_hd__decap_4
X_09723_ net696 net3937 net611 VGND VGND VPWR VPWR _01475_ sky130_fd_sc_hd__mux2_1
XFILLER_74_309 VGND VGND VPWR VPWR sky130_fd_sc_hd__fill_1
X_06935_ data_array.data0\[9\]\[18\] net1567 net1471 data_array.data0\[10\]\[18\]
+ VGND VGND VPWR VPWR _04222_ sky130_fd_sc_hd__a22o_1
XFILLER_101_469 VPWR VGND VPWR VGND sky130_ef_sc_hd__decap_12
XTAP_TAPCELL_ROW_52_1383 VGND VPWR sky130_fd_sc_hd__tapvpwrvgnd_1
XTAP_TAPCELL_ROW_52_1394 VGND VPWR sky130_fd_sc_hd__tapvpwrvgnd_1
XFILLER_110_981 VPWR VGND VPWR VGND sky130_ef_sc_hd__decap_12
X_09654_ net770 net4512 net614 VGND VGND VPWR VPWR _01406_ sky130_fd_sc_hd__mux2_1
X_06866_ net1628 _04153_ _04157_ net1202 VGND VGND VPWR VPWR _04160_ sky130_fd_sc_hd__a22o_1
X_08605_ net703 net3143 net528 VGND VGND VPWR VPWR _00364_ sky130_fd_sc_hd__mux2_1
XFILLER_82_342 VGND VGND VPWR VPWR sky130_fd_sc_hd__decap_4
X_05817_ _03239_ _03277_ _03289_ VGND VGND VPWR VPWR _03334_ sky130_fd_sc_hd__or3_1
XFILLER_103_57 VGND VGND VPWR VPWR sky130_fd_sc_hd__decap_4
X_09585_ net1010 net2765 net394 VGND VGND VPWR VPWR _01337_ sky130_fd_sc_hd__mux2_1
X_06797_ data_array.data0\[12\]\[5\] net1360 net1266 data_array.data0\[15\]\[5\] _04096_
+ VGND VGND VPWR VPWR _04097_ sky130_fd_sc_hd__a221o_1